data/casedata/case14.py
# Copyright (c) 1996-2015 PSERC. All rights reserved.
# Use of this source code is governed by a BSD-style
# license that can be found in the LICENSE file.

"""Power flow data for IEEE 14 bus test case.
"""

from numpy import array

def case14():
    """Power flow data for IEEE 14 bus test case.
    Please see L{caseformat} for details on the case file format.

    This data was converted from IEEE Common Data Format
    (ieee14cdf.txt) on 20-Sep-2004 by cdf2matp, rev. 1.11

    Converted from IEEE CDF file from:
    U{http://www.ee.washington.edu/research/pstca/}

    08/19/93 UW ARCHIVE           100.0  1962 W IEEE 14 Bus Test Case

    @return: Power flow data for IEEE 14 bus test case.
    """
    ppc = {"version": '2'}

    ##-----  Power Flow Data  -----##
    ## system MVA base
    ppc["baseMVA"] = 100.0

    ## bus data
    # bus_i type Pd Qd Gs Bs area Vm Va baseKV zone Vmax Vmin
    ppc["bus"] = array([
        [1,  3,  0,    0,   0, 0,  1, 1.06,    0,    0, 1, 1.06, 0.94, 0.01 ,   0.01 ],
        [2,  2, 21.7, 12.7, 0, 0,  1, 1.045,  -4.98, 0, 1, 1.06, 0.94, 0.01 ,   0.01 ],
        [3,  2, 94.2, 19,   0, 0,  1, 1.01,  -12.72, 0, 1, 1.06, 0.94, 0.01 ,   0.01 ],
        [4,  1, 47.8, -3.9, 0, 0,  1, 1.019, -10.33, 0, 1, 1.06, 0.94, 0 ,      0.01 ],
        [5,  1,  7.6,  1.6, 0, 0,  1, 1.02,   -8.78, 0, 1, 1.06, 0.94, 0 ,      0.01 ],
        [6,  2, 11.2,  7.5, 0, 0,  1, 1.07,  -14.22, 0, 1, 1.06, 0.94, 0.01 ,   0.01 ],
        [7,  1,  0,    0,   0, 0,  1, 1.062, -13.37, 0, 1, 1.06, 0.94, 0 ,      0 ],
        [8,  2,  0,    0,   0, 0,  1, 1.09,  -13.36, 0, 1, 1.06, 0.94, 0.01 ,   0.01 ],
        [9,  1, 29.5, 16.6, 0, 19, 1, 1.056, -14.94, 0, 1, 1.06, 0.94, 0 ,      0.01 ],
        [10, 1,  9,    5.8, 0, 0,  1, 1.051, -15.1,  0, 1, 1.06, 0.94, 0 ,      0.01 ],
        [11, 1,  3.5,  1.8, 0, 0,  1, 1.057, -14.79, 0, 1, 1.06, 0.94, 0 ,      0.01 ],
        [12, 1,  6.1,  1.6, 0, 0,  1, 1.055, -15.07, 0, 1, 1.06, 0.94, 0 ,      0.01 ],
        [13, 1, 13.5,  5.8, 0, 0,  1, 1.05,  -15.16, 0, 1, 1.06, 0.94, 0 ,      0.01 ],
        [14, 1, 14.9,  5,   0, 0,  1, 1.036, -16.04, 0, 1, 1.06, 0.94, 0 ,      0.01 ]
    ])

    ## generator data
    # bus, Pg, Qg, Qmax, Qmin, Vg, mBase, status, Pmax, Pmin, Pc1, Pc2,
    # Qc1min, Qc1max, Qc2min, Qc2max, ramp_agc, ramp_10, ramp_30, ramp_q, apf  # p_g of 3 to 8 is all change from 0 to 40
    ppc["gen"] = array([
        [1, 232.4, -16.9, 10,   0, 1.06,  100, 1, 332.4, 0, 0, 0, 0, 0, 0, 0, 0, 0, 0, 0, 0],
        [2,  40,    42.4, 50, -40, 1.045, 100, 1, 140,   0, 0, 0, 0, 0, 0, 0, 0, 0, 0, 0, 0],
        [3,  40,    23.4, 40,   0, 1.01,  100, 1, 100,   0, 0, 0, 0, 0, 0, 0, 0, 0, 0, 0, 0],
        [6,  40,    12.2, 24,  -6, 1.07,  100, 1, 100,   0, 0, 0, 0, 0, 0, 0, 0, 0, 0, 0, 0],
        [8,  40,    17.4, 24,  -6, 1.09,  100, 1, 100,   0, 0, 0, 0, 0, 0, 0, 0, 0, 0, 0, 0]
    ])

    ## branch data
    # fbus, tbus, r, x, b, rateA, rateB, rateC, ratio, angle, status, angmin, angmax
    ppc["branch"] = array([
        [1,   2, 0,  0.05917, 0.0528, 9900, 0, 0, 0,     0, 1, -360, 360],
        [1,   5, 0,  0.22304, 0.0492, 9900, 0, 0, 0,     0, 1, -360, 360],
        [2,   3, 0,  0.19797, 0.0438, 9900, 0, 0, 0,     0, 1, -360, 360],
        [2,   4, 0,  0.17632, 0.034,  9900, 0, 0, 0,     0, 1, -360, 360],
        [2,   5, 0,  0.17388, 0.0346, 9900, 0, 0, 0,     0, 1, -360, 360],
        [3,   4, 0,  0.17103, 0.0128, 9900, 0, 0, 0,     0, 1, -360, 360],
        [4,   5, 0,  0.04211, 0,      9900, 0, 0, 0,     0, 1, -360, 360],
        [4,   7, 0,  0.20912, 0,      9900, 0, 0, 0.978, 0, 1, -360, 360],
        [4,   9, 0,  0.55618, 0,      9900, 0, 0, 0.969, 0, 1, -360, 360],
        [5,   6, 0,  0.25202, 0,      9900, 0, 0, 0.932, 0, 1, -360, 360],
        [6,  11, 0,  0.1989,  0,      9900, 0, 0, 0,     0, 1, -360, 360],
        [6,  12, 0,  0.25581, 0,      9900, 0, 0, 0,     0, 1, -360, 360],
        [6,  13, 0,  0.13027, 0,      9900, 0, 0, 0,     0, 1, -360, 360],
        [7,   8, 0,  0.17615, 0,      9900, 0, 0, 0,     0, 1, -360, 360],
        [7,   9, 0,  0.11001, 0,      9900, 0, 0, 0,     0, 1, -360, 360],
        [9,  10, 0,  0.0845,  0,      9900, 0, 0, 0,     0, 1, -360, 360],
        [9,  14, 0,  0.27038, 0,      9900, 0, 0, 0,     0, 1, -360, 360],
        [10, 11, 0,  0.19207, 0,      9900, 0, 0, 0,     0, 1, -360, 360],
        [12, 13, 0,  0.19988, 0,      9900, 0, 0, 0,     0, 1, -360, 360],
        [13, 14, 0,  0.34802, 0,      9900, 0, 0, 0,     0, 1, -360, 360]
    ])

     ##----- Generator bus control data  -----##
    # type of generator or inverter, min_m, max_m, min_d, max_d, min_p (p.u.), max_p (p.u.)
	#  type of generator or inverter: 9 - conventional generator, 0 - inverter with no optimize, 1 - inverter optimizing d, 2 - inverter optimizing m, 3 - inverters optimizing d and m
    ppc["gencontrol"] = array([
            [ 1          , 3          , 0.105806   , 0.105806   , 0.529031   , 0.529031   , -9.972     , 9.972      ],
            [ 2          , 3          , 0.000891   , 0.000891   , 0.004456   , 0.445634   , -4.2       , 4.2        ],
            [ 3          , 3          , 0.031831   , 0.031831   , 0.003183   , 0.31831    , -3.0       , 3.0        ],
            [ 6          , 3          , 0.000637   , 0.063662   , 0.159155   , 0.159155   , -3.0       , 3.0        ],
            [ 8          , 3          , 0.000637   , 0.063662   , 0.003183   , 0.31831    , -3.0       , 3.0        ]
    ])

    
    ###----- disturbances data -----###
    #1 - power-step: num, buses, start time, amplitude(\times p_0)
    #2 - power ramp: num, buses, start time, duration time, height (\times p_0)
    #3 - power fluctuation: num, buses, start time, time interval, date num
    #4 - 3psc: num, branch-f_bus,  branch-t_bus, nearest bus, short-circuit conductance (p.u.), start time, clearing time(\Delta t with second)
    #9: uniform distribution date on [-0.2, 0.2]

    ppc["disturbance"] = {
    1: array([
        [1,     2,      0,      -0.5, 0.09],
        [2,     4,      0,      -0.5, 0.09]
    ]),
    2: array([
        [1,    3,      0,      5,      -0.5, 0.09],
        [2,    9,      0,      5,      -0.5, 0.09]
    ]),
    3: array([
        [1,    6,      0,     0.5,    9, 0.3],
        [2,    13,     0,     0.5,      9, 0.3]
    ]),
    4: array([
        [1,    4,     9,       999,      999,    0,      0.1, 0.01],
        [2,    9,      14,       999,      999,    0,      0.1, 0.01]
    ]),
    9: array([
        -0.077752022,-0.049592684,-0.094386402,-0.027777255,0.106175442,0.07760974,0.010639525,0.145379902,-0.113145199,-0.173299214,0.027856593,-0.153232617,-0.123096728,-0.077041254,-0.152101278,-0.059589093,-0.06009897,-0.121105119,-0.017018885,0.072363903,0.170954442,-0.034889518,-0.060918945,0.037836957,0.170201299,-0.1546673,0.1972234,-0.071938968,-0.107488659,-0.088976472,-0.068018895,-0.06587186,-0.003419552,0.152372651,0.112508103,0.142640044,-0.049963844,-0.149540361,0.139890352,0.13228229,-0.075472623,0.055259011,-0.017222513,-0.13241881,0.012423058,-0.000117756,0.191749308,-0.080003032,-0.166717849,-0.149633579,-0.166748818,-0.179088528,0.199144351,-0.101607438,-0.105415065,0.149580196,-0.005620803,0.089868514,0.022076414,-0.094829629,0.111238813,0.133720447,0.121662029,0.141913883,-0.111726178,-0.14110605,0.032269891,0.120886645,0.009050625,-0.011489962,0.016302734,0.12436742,0.11313339,-0.092537767,0.147695992,0.174444751,0.15505781,-0.193334631,0.159925609,-0.099949322,0.099644356,0.079428698,-0.048152161,0.06028194,0.126261189,0.15150098,-0.147034132,-0.058805963,-0.094758118,0.051548502,0.020517378,-0.195080454,0.092211274,0.089238641,-0.091390137,-0.088318354,0.030346984,0.13823391,-0.160389818,-0.160731705
    ])
    }

    # parameters of discretization
    # time_ele_d1 - number of time elements for disturbance 1;
    # time_ele_d2_d - number of time element during the disturbance for disturbance 2;
    # t_f - assume t_0 = 0 for all disturbances
    # order - order of collocation
    ppc["param_disc"] = {
    'time_ele':{1: 10, 2: 10, 3: 20, 4: 10},
    'time_ele_d':{2: 4, 4: 4},
    'order':{1: 3, 2: 3, 3: 3, 4: 3},
    't_f':{1: 10, 2: 10, 3: 30, 4: 10},
    'colloc_point_radau': {1:(0, 1.0),2:(0, 0.333333, 1.0),3:(0, 0.155051, 0.644949, 1.0),4:(0, 0.088588, 0.409467, 0.787659, 1.0),5:(0, 0.057104, 0.276843, 0.583590, 0.860240, 1.0)}
    }

    ppc["freq_band"] = {
    1:{(0, 15):(49.5, 50.5), (15, 300):(49.85, 50.15)},
    2:{(0, 15):(49.5, 50.5), (15, 300):(49.85, 50.15)},
    3:{(0, 300):(49.85, 50.15)},
    4:{(0, 15):(49, 51), (15, 60):(49.5, 50.5), (60, 300):(49.85, 50.15)}
    }

    return ppc
